[General]
network = Ethernet
sim-time-limit = 10s

**.s0.cli.destAddress = "s1"
**.s1.cli.destAddress = "s0"
**.cli.sendInterval = exponential(1s)
**.cli.reqLength = intuniform(50, 1400)*1B
**.cli.respLength = intWithUnit(truncnormal(3000B, 3000B))

**.s2.cli.destAddress = "s3"
**.s3.cli.destAddress = "s2"
**.cli.sendInterval = exponential(1s)
**.cli.reqLength = intuniform(50, 1400)*1B
**.cli.respLength = intWithUnit(truncnormal(3000B, 3000B))

**.s4.cli.destAddress = "s5"
**.s5.cli.destAddress = "s4"
**.cli.sendInterval = exponential(1s)
**.cli.reqLength = intuniform(50, 1400)*1B
**.cli.respLength = intWithUnit(truncnormal(3000B, 3000B))